/*--------------------------------*- C++ -*----------------------------------*\
  =========                 |
  \\      /  F ield         | OpenFOAM: The Open Source CFD Toolbox
   \\    /   O peration     | Website:  https://openfoam.org
    \\  /    A nd           | Version:  10
     \\/     M anipulation  |
\*---------------------------------------------------------------------------*/
FoamFile
{
    format      ascii;
    class       dictionary;
    object      bafflesPatchFields;
}
// * * * * * * * * * * * * * * * * * * * * * * * * * * * * * * * * * * * * * //

alpha.air
{
    type            zeroGradient;
}

alpha.water
{
    type            zeroGradient;
}

alphat.air
{
    type            compressible::alphatWallFunction;
    Prt             0.85;
    value           uniform 0;
}

alphat.water
{
    type            compressible::alphatWallFunction;
    Prt             0.85;
    value           uniform 0;
}

epsilon.air
{
    type            epsilonWallFunction;
    value           uniform 1.5e-4;
}

epsilon.water
{
    type            epsilonWallFunction;
    value           uniform 1.5e-4;
}

epsilonm
{
    type            epsilonmWallFunction;
    value           uniform 1.5e-4;
}
k.air
{
    type            kqRWallFunction;
    value           uniform 3.75e-5;
}

k.water
{
    type            kqRWallFunction;
    value           uniform 3.75e-5;
}

km
{
    type            zeroGradient;
    value           uniform 3.75e-5;
}

nut.air
{
    type            nutkWallFunction;
    value           uniform 1e-8;
}

nut.water
{
    type            nutkWallFunction;
    value           uniform 1e-8;
}

p
{
    type            calculated;
    value           uniform 101325;
}

p_rgh
{
    type            fixedFluxPressure;
    value           uniform 101325;
}

T.air
{
    type               zeroGradient;
}

T.water
{
    type               zeroGradient;
}

U.air
{
    type            fixedValue;
    value           uniform (0 0 0);
}

U.water
{
    type            fixedValue;
    value           uniform (0 0 0);
}

// ************************************************************************* //
